!!
!! Control File for FSTR solver
!!
!VERSION
  1
!SOLUTION, TYPE = STATIC
!STATIC, TYPE = NLGEOM
!BOUNDARY
  FIX, 1, 3,   0.0
!CLOAD
  CL1,    3,  -1.0
!MATERIAL, NAME=M1
!ELASTIC
  4000.0,   0.3
!STEP, SUBSTEPS=10
  BOUNDARY, 1
  LOAD,     1
!!
!! SOLVER CONTROL
!!
!WRITE,RESULT
!NODE_OUTPUT
   STRAIN
   STRESS
!SOLVER,METHOD=1,PRECOND=1,ITERLOG=NO,TIMELOG=NO
  10000, 2
 1.0e-8, 1.0, 0.0
!END
