###################################
#####   SOLVER INFORMATION    #####
###################################
!VERSION
 3
!SOLUTION, TYPE=STATIC, NONLINEAR
!WRITE,LOG
!WRITE,RESULT,FREQUENCY=1000000
!OUTPUT_RES
DISP,ON
REACTION,ON
NSTRAIN,OFF
NSTRESS,OFF
NMISES,ON
ESTRAIN,OFF
ESTRESS,OFF
EMISES,ON
ISTRESS,ON
!SOLVER,METHOD=CG,PRECOND=1,NSET=0,ITERLOG=NO,TIMELOG=NO
 5000, 1
 1.0e-06, 1.00, 0.0
###################################
#####   BOUNDARY CONDITIONS   #####
###################################
!BOUNDARY, GRPID=1
 SET_3,1,1
 SET_3,2,2
 SET_3,3,3
!CLOAD, GRPID=1
PUSH1,2,-0.5
!CLOAD, GRPID=2
PUSH2,2,-1.
###################################
#####         MATERIAL        #####
###################################
!MATERIAL, NAME=MATERIAL_1
!ELASTIC
 1.00000000E+01, 3.00000000E-01
!SECTION,SECNUM=1,FORM341=SELECTIVE_ESNS
###################################
#####       STEP CONTROL      #####
###################################
!STEP, SUBSTEPS=2, MAXITER=10
BOUNDARY,1
LOAD,1
LOAD,2
###################################
#####      FOR VISUALIZER     #####
###################################
!END
