###################################
#####   SOLVER INFORMATION    #####
###################################
!VERSION
 3
!SOLUTION, TYPE=NLSTATIC
!CONTACT_ALGO,TYPE=SLAGRANGE
!WRITE,LOG
!WRITE,RESULT,FREQUENCY=2
!SOLVER,METHOD=CG,PRECOND=1,NSET=0,ITERLOG=NO,TIMELOG=NO
 5000, 1
 1.0e-06, 1.00, 0.0
 0.100, 0.100
###################################
#####   BOUNDARY CONDITIONS   #####
###################################
!BOUNDARY, GRPID=1
 SET_1,2,2
!BOUNDARY, GRPID=2
 SET_2,1,1
!BOUNDARY, GRPID=3
 SET_3,3,3
!DLOAD, GRPID=1
SURF_3,S,1.
###################################
#####   CONTACT DEFINITIONS   #####
###################################
!CONTACT_PARAM, NAME=CPARAM1
1.0e-4,  5.0e-3,  1.0e-2,  1.0e-4
1.0e-6,  1.0e-6,  1.0,    -1.0e-8,  1.05
!CONTACT, INTERACTION=FSLID, CONTACTPARAM=CPARAM1, GRPID=1
CP1,0.00000000E+00,5.0E+2
###################################
#####         MATERIAL        #####
###################################
!MATERIAL, NAME=MATERIAL_1
!ELASTIC
 1.00000000E+03, 3.00000000E-01
!SECTION, SECNUM=1, FORM341=SELECTIVE_ESNS
!SECTION, SECNUM=2, FORM341=SELECTIVE_ESNS
###################################
#####       STEP CONTROL      #####
###################################
!STEP, SUBSTEPS=2, CONVERG=1.000E-07
BOUNDARY,1
BOUNDARY,2
BOUNDARY,3
LOAD,1
CONTACT,1
!END
