###################################
#####   SOLVER INFORMATION    #####
###################################
!VERSION
 3
!SOLUTION, TYPE=NLSTATIC
!WRITE,LOG
!WRITE,RESULT,FREQUENCY=2
!SOLVER,METHOD=CG,PRECOND=1,NSET=0,ITERLOG=NO,TIMELOG=NO
 5000, 1
 1.0e-06, 1.00, 0.0
 0.100, 0.100
###################################
#####   BOUNDARY CONDITIONS   #####
###################################
!BOUNDARY, GRPID=1
 SET_1,1,1
 SET_1,2,2
 SET_1,3,3
!CLOAD, GRPID=1
SET_4,2,-2.0
###################################
#####         MATERIAL        #####
###################################
!MATERIAL, NAME=MATERIAL1
!ELASTIC, CAUCHY
 1.00000000E+03, 3.00000000E-01
!SECTION,SECNUM=1,FORM341=SELECTIVE_ESNS
###################################
#####       STEP CONTROL      #####
###################################
!STEP, SUBSTEPS=2, CONVERG=1.0E-06, MAXITER=10
BOUNDARY,1
LOAD,1
!END
