!VERSION
    5
!SOLUTION, TYPE = NLSTATIC
!BOUNDARY, GRPID = 1
 1, 1,3, 0.0
 2, 1,3, 0.0
 3, 1,3, 0.0
 4, 1,3, 0.0
 5, 1,3, 0.0
 6, 1,3, 0.0
 7, 1,3, 0.0
 8, 1,2, 0.0
!CLOAD, GRPID = 1
 8, 3, 100
!STEP, SUBSTEPS = 2, CONVERG=1.E-8, AMP=AMP1
  BOUNDARY,    1
  LOAD, 1
!MATERIAL, NAME=M1
!ELASTIC
  10.0E+04,   0.3
!WRITE, RESULT, FREQUENCY=1
!OUTPUT_RES
 DISP, ON
 NSTRESS, OFF
 NMISES, OFF
!SOLVER, METHOD = CG, PRECOND = 3, ITERLOG = NO, TIMELOG = NO
  10000,       1
 1.0E-8,     1.0,     0.0
!END
