!VERSION
    3
!SOLUTION, TYPE = NLSTATIC
!BOUNDARY, GRPID = 1
        1,        1,        3,   0.0000000000E+00
        4,        1,        1,   0.0000000000E+00
        4,        3,        3,   0.0000000000E+00
        5,        1,        2,   0.0000000000E+00
        8,        1,        1,   0.0000000000E+00
        2,        1,        1,   0.012
	3,        1,        1,   0.012
	6,        1,        1,   0.012
        7,        1,        1,   0.012
!STEP, SUBSTEPS = 10, CONVERG=1.E-8
  BOUNDARY,    1
!MATERIAL, NAME=M1
!ELASTIC
  10.0E+04,   0.0
!PLASTIC, YIELD=MOHR-COULOMB
  500., 20., 0.0, 10.
!WRITE, RESULT, FREQUENCY=5
!ELEMENT_OUTPUT, POSITION=INTEG
   STRAIN
   STRESS
   PLSTRAIN
!SOLVER, METHOD = BiCGSTAB, PRECOND = 1, ITERLOG = NO, TIMELOG = NO
  10000,       1
 1.0E-12,     1.0,     0.0
!END
