###################################
#####   SOLVER INFORMATION    #####
###################################
!VERSION
 3
!SOLUTION, TYPE=STATIC, NONLINEAR
!WRITE,LOG
!WRITE,RESULT,FREQUENCY=2
!SOLVER,METHOD=CG,PRECOND=1,NSET=0,ITERLOG=NO,TIMELOG=NO
 5000, 1
 1.0e-06, 1.00, 0.0
 0.100, 0.100
###################################
#####   BOUNDARY CONDITIONS   #####
###################################
!BOUNDARY, GRPID=1
 SET_1,1,1
 SET_1,2,2
 SET_1,3,3
!BOUNDARY, GRPID=2
 SET_2,1,1
!BOUNDARY, GRPID=3
 SET_3,2,2
!TEMPERATURE, GRPID=1
BEAM_1_SET_1,125.
###################################
#####         MATERIAL        #####
###################################
!MATERIAL, NAME=MATERIAL1
!ELASTIC, DEPENDENCIES=1
 1.00000000E+03, 3.00000000E-01, 0.00000000E+00
 3.00000000E+02, 2.00000000E-01, 2.00000000E+02
!EXPANSION_COEFF
 1.00000000E-05
!SECTION, SECNUM=1, FORM361=BBAR
###################################
#####       STEP CONTROL      #####
###################################
!STEP, SUBSTEPS=2, CONVERG=1.000E-07
BOUNDARY,1
BOUNDARY,2
BOUNDARY,3
LOAD,1
!END
