###################################
#####   SOLVER INFORMATION    #####
###################################
!VERSION
 3
!SOLUTION, TYPE=DYNAMIC, NONLINER
!DYNAMIC, TYPE=NONLINEAR
 1 , 1
 0.0, 0.01, 2, 0.005
 0.5, 0.25
 1, 1, 0.0, 0.0
 1, 1, 1
 1, 1, 1, 1, 1, 1
!WRITE,LOG
!OUTPUT_RES
ISTRAIN,ON
ISTRESS,ON
!SOLVER,METHOD=CG,PRECOND=1,NSET=0,ITERLOG=NO,TIMELOG=NO
 5000, 1
 1.0e-06, 1.00, 0.0
 0.100, 0.100
###################################
#####   BOUNDARY CONDITIONS   #####
###################################
!BOUNDARY, GRPID=1
 TET1, 1, 3, 0.0
!CLOAD, GRPID=1
 TET2, 1, 1.0
 TET2, 2, 1.0
 TET2, 3, 1.0
#################################
#####         MATERIAL        #####
###################################
!MATERIAL, NAME=MATERIAL1
!ELASTIC, INFINITESIMAL
1000, 0.3
!DENSITY
1.0E-3
!MATERIAL, NAME=MATERIAL2
!DASHPOT_A
100
###################################
#####       STEP CONTROL      #####
###################################
!WRITE,RESULT
!END

