###################################
#####   SOLVER INFORMATION    #####
###################################
!VERSION
 3
!SOLUTION, TYPE=DYNAMIC, NONLINER
!DYNAMIC
 1 , 1
 0.0, 1.0, 2, 0.5
 0.5, 0.25
 1, 1, 0.0, 0.0
 1, 1, 1
 1, 1, 1, 1, 1, 1
!WRITE,LOG
!WRITE,RESULT
!OUTPUT_RES
ISTRAIN,ON
ISTRESS,ON
!SOLVER,METHOD=CG,PRECOND=1,NSET=0,ITERLOG=NO,TIMELOG=NO
 5000, 1
 1.0e-06, 1.00, 0.0
 0.100, 0.100
###################################
#####   BOUNDARY CONDITIONS   #####
###################################
!BOUNDARY, GRPID=1
 TET1, 1, 3, 0.0
!CLOAD
 TET2, 1, 10.
 TET2, 2, 10.
 TET2, 3, 10.
#################################
#####         MATERIAL        #####
###################################
!MATERIAL, NAME=MATERIAL1
!ELASTIC, INFINITESIMAL
1000, 0.3
!DENSITY
1.0E-6
!MATERIAL, NAME=MATERIAL2
!DASHPOT_D
1, 1, 100.0
2, 2, 300.0
3, 3, 400.0
###################################
#####       STEP CONTROL      #####
###################################
!STEP, SUBSTEPS=1, CONVERG=1.000E-07
BOUNDARY,1
LOAD,1
!END

