###################################
#####   SOLVER INFORMATION    #####
###################################
!VERSION
 3
!SOLUTION, TYPE=STATIC, NONLINEAR
!WRITE,LOG
!SOLVER,METHOD=CG,PRECOND=1,NSET=0,ITERLOG=NO,TIMELOG=NO
 5000, 1
 1.0e-06, 1.00, 0.0
 0.100, 0.100
###################################
#####   BOUNDARY CONDITIONS   #####
###################################
!BOUNDARY, GRPID=1
 1, 1, 1, 1.0
 1, 2, 3, 0.0
 3, 1, 3, 0.0
 4, 1, 3, 0.0
!CLOAD
 2, 1, 100.
 2, 2, 100.
 2, 3, 100.
#################################
#####         MATERIAL        #####
###################################
!MATERIAL, NAME=MATERIAL1
!SPRING_D
1, 1, 100.0
1, 2, 200.0
2, 2, 300.0
3, 3, 400.0
###################################
#####       STEP CONTROL      #####
###################################
!STEP, SUBSTEPS=1, CONVERG=1.000E-07
BOUNDARY,1
LOAD,1
!WRITE,RESULT
!WRITE,VISUAL
!VISUAL, method=PSR
!surface_num=1
!surface 1
!output_type=BIN_VTK
!END

