###################################
#####   SOLVER INFORMATION    #####
###################################
!VERSION
 3
!SOLUTION, TYPE=STATIC, NONLINEAR
!WRITE,LOG
!WRITE,RESULT
!SOLVER,METHOD=CG,PRECOND=3,NSET=0,ITERLOG=NO,TIMELOG=NO
 5000, 1
 1.0e-06, 1.00, 0.0
 0.100, 0.100
###################################
#####   BOUNDARY CONDITIONS   #####
###################################
!BOUNDARY, GRPID=1
 1, 1, 3, 0.0
 3, 1, 3, 0.0
 4, 1, 3, 0.0
!CLOAD
 2, 1, 200.
 2, 2, 300.
 2, 3, 600.
#################################
#####         MATERIAL        #####
###################################
!MATERIAL, NAME=MATERIAL1
!SPRING_A
100
###################################
#####       STEP CONTROL      #####
###################################
!STEP, SUBSTEPS=2, CONVERG=1.000E-07, MAXITER=10
BOUNDARY,1
LOAD,1
!END

