!VERSION
    3
!SOLUTION, TYPE = NLSTATIC
!BOUNDARY, GRPID = 1
  BOT,2,2,0.0
  CENT,1,1,0.0
  FRONT,3,3,0.0
  9,2,2,0.1
 10,2,2,0.1
 29,2,2,0.1
 30,2,2,0.1
!BOUNDARY, GRPID = 2
  BOT,2,2,0.0
  CENT,1,1,0.0
  FRONT,3,3,0.0
  9,2,2,0.0
 10,2,2,0.0
 29,2,2,0.0
 30,2,2,0.0
!STEP, TYPE=VISCO, CONVERG=1.0E-6
 0.5, 1.0
  BOUNDARY,    1
!MATERIAL, NAME=M1
!ELASTIC
 1.0E+5, 0.25
!VISCOELASTIC
 0.25, 0.1
 0.5,  0.3
!WRITE,RESULT
!OUTPUT_RES
EMISES,ON
!NODE_OUTPUT
   STRAIN
   STRESS
!SOLVER, METHOD = CG, PRECOND = 1, ITERLOG = NO, TIMELOG = NO
  10000,       1
 1.0E-12,     1.0,     0.0
!END
