!VERSION
 3
!SOLUTION, TYPE=DYNAMIC, NONLINEAR
!DYNAMIC
 1, 1
 0.0, 1.0, 5, 0.2
 0.5, 0.25
 1, 1, 0.0, 0.0
 100, 1, 1
 1, 1, 1, 1, 1, 1
!BOUNDARY, GRPID=1
 bottom, 1, 3, 0.0
!BOUNDARY, GRPID=1, AMP=RAMP
 top, 3, 3, -0.01
!MATERIAL, NAME=M00001
!ELASTIC
 2.613E+04, 0.2
!DENSITY
 1.0E-03
!SECTION, SECNUM=1, FORM361=FI
!STEP, CONVERG=1.0E-06, MAXITER=20
 BOUNDARY, 1
!SOLVER, METHOD=CG, PRECOND=1, ITERLOG=NO, TIMELOG=NO, MPCMETHOD=3
 10000, 1
 1.0e-10, 1.0, 0.0
!WRITE,RESULT,FREQUENCY=5
!END
