!!
!! Control File for FSTR solver generated by Ruby
!!
!VERSION
 3
!SOLUTION, TYPE=STATIC
!SECTION, TYPE=SOLID, EGRP=SECT1, MATERIAL=M1
 1.0
!MATERIAL, NAME=M1, ITEM=1
!ELASTIC
 7.20000e+010, 0.300000
!BOUNDARY
 BND, 1, 1, 0.000000
 BND, 2, 2, 0.000000
 BND, 3, 3, 0.000000
!DLOAD
 170, P1, 1000.00
 221, P1, 1000.00
 437, P1, 1000.00
 741, P1, 1000.00
 1235, P3, 1000.00
 1235, P4, 1000.00
 1426, P4, 1000.00
 1426, P2, 1000.00
 1485, P3, 1000.00
 1485, P2, 1000.00
 1830, P1, 1000.00
 1949, P1, 1000.00
 2153, P1, 1000.00
 2159, P1, 1000.00
 2749, P1, 1000.00
 2802, P1, 1000.00
 2818, P1, 1000.00
 2872, P1, 1000.00
 2914, P1, 1000.00
 2948, P1, 1000.00
# ... 151 like lines cut
!STEP, SUBSTEPS=1, CONVERG=1.0e-5
 BOUNDARY, 1
 LOAD, 1
!!
!! SOLVER CONTROL
!!
!SOLVER,METHOD=CG,PRECOND=1,ITERLOG=NO,TIMELOG=NO,NSET=0,
 10000, 0
 1e-008, 1, 0
 0.1, 0.1
!!
!! POST CONTROL
!!
!WRITE,VISUAL
!VISUAL,metod=PSR
!surface_num=1
!surface 1
!output_type=VTK
!END
