!VERSION
    3
!SOLUTION, TYPE = NLSTATIC
!BOUNDARY, GRPID = 1
        1,        1,        3,   0.0000000000E+00
        4,        1,        1,   0.0000000000E+00
        4,        3,        3,   0.0000000000E+00
        5,        1,        2,   0.0000000000E+00
        8,        1,        1,   0.0000000000E+00
!BOUNDARY, GRPID = 2
        2,        1,        1,   0.012
        3,        1,        1,   0.012
        6,        1,        1,   0.012
        7,        1,        1,   0.012
!BOUNDARY, GRPID = 3
        2,        1,        1,   0.000
        3,        1,        1,   0.000
        6,        1,        1,   0.000
        7,        1,        1,   0.000
!STEP, SUBSTEPS = 5, CONVERG=1.E-8
  BOUNDARY,    1
  BOUNDARY,    2
!STEP, SUBSTEPS = 5, CONVERG=1.E-8
  BOUNDARY,    1
  BOUNDARY,    3
!MATERIAL, NAME=M1
!ELASTIC
  10.0E+04,   0.3
!WRITE, RESULT, FREQUENCY=5
!SOLVER, METHOD = CG, PRECOND = 3, ITERLOG = NO, TIMELOG = NO
  10000,       1
 1.0E-8,     1.0,     0.0
!WRITE,VISUAL, FREQUENCY=5
!VISUAL, method=PSR
!surface_num = 1
!surface 1
!output_type  = VTK
!END
