###################################
#####   SOLVER INFORMATION    #####
###################################
!VERSION
 3
!SOLUTION, TYPE=STATIC, NONLINEAR, STF_TYPE=NUMERICAL
!WRITE,LOG
!WRITE,RESULT,FREQUENCY=1
!SOLVER,METHOD=BICGSTAB,PRECOND=1,NSET=0,ITERLOG=NO,TIMELOG=NO
 5000, 1
 1.0e-06, 1.00, 0.0
 0.100, 0.100
###################################
#####   BOUNDARY CONDITIONS   #####
###################################
!BOUNDARY, GRPID=1
 SET_1,1,1
 SET_1,2,2
 SET_1,3,3
!CLOAD, GRPID=1
SET_4,2,-0.03
###################################
#####         MATERIAL        #####
###################################
!MATERIAL, NAME=MATERIAL1
!ELASTIC
 1.00000000E+03, 3.00000000E-01
###################################
#####       STEP CONTROL      #####
###################################
!STEP, SUBSTEPS=1, CONVERG=1.000E-07, MAXITER=5
BOUNDARY,1
LOAD,1
!END
