###################################
#####   SOLVER INFORMATION    #####
###################################
!VERSION
 3
!SOLUTION, TYPE=STATIC, NONLINEAR
!WRITE,LOG
!WRITE,RESULT,FREQUENCY=2
!SOLVER,METHOD=CG,PRECOND=1,NSET=0,ITERLOG=NO,TIMELOG=NO
 5000, 1
 1.0e-06, 1.00, 0.0
 0.100, 0.100
###################################
#####   BOUNDARY CONDITIONS   #####
###################################
!BOUNDARY, GRPID=1
 SET_1,1,1
 SET_1,2,2
 SET_1,3,3
!BOUNDARY, GRPID=2
 SET_2,1,1
!BOUNDARY, GRPID=3
 SET_3,2,2
!TEMPERATURE, GRPID=1
BEAM_1_SET_1,125.
###################################
#####         MATERIAL        #####
###################################
!ORIENTATION, NAME=BEAM_1_ORI_1
1.,0.,0.,0.,1.,0.,0.0,0.0,0.0
!SECTION, SECNUM=1, ORIENTATION=BEAM_1_ORI_1, FORM361=FBAR
!MATERIAL, NAME=MATERIAL1
!ELASTIC, TYPE=ORTHOTROPIC, DEPENDENCIES=1
 1.00000000E+03, 5.00000000E+02, 1.00000000E+02, 3.00000000E-01, 2.00000000E-01, 1.00000000E-01, 1.00000000E+02, 8.00000000E+01, 6.00000000E+01, 0.00000000E+00
 8.00000000E+02, 6.00000000E+02, 3.00000000E+02, 0.00000000E+00, 1.00000000E-01, 3.00000000E-01, 6.00000000E+01, 8.00000000E+01, 1.00000000E+02, 1.00000000E+02
!EXPANSION_COEFF, TYPE=ORTHOTROPIC, DEPENDENCIES=1
 1.00000000E-05,  2.00000000E-05,  3.00000000E-05, 0.00000000E+00
 3.00000000E-05,  1.00000000E-05,  2.00000000E-05, 1.00000000E+02
###################################
#####       STEP CONTROL      #####
###################################
!STEP, SUBSTEPS=2, CONVERG=1.000E-07
BOUNDARY,1
BOUNDARY,2
BOUNDARY,3
LOAD,1
!END
