#  Control File for FISTR
## Analysis Control
!VERSION
 3
!SOLUTION, TYPE=NLSTATIC
!WRITE,RESULT
!WRITE,VISUAL
!OUTPUT_VIS
 CONTACT_STATE,ON
## Solver Control
### Boundary Condition
!BOUNDARY, GRPID=1
 ALL, 3, 3, 0.0
 BOTTOM, 2, 2, 0.0
 CENTER, 1, 1, 0.0
 UPPER,  2, 2, -3.5
!CONTACT_ALGO, TYPE=ALAGRANGE, AUGITER=20
!CONTACT, GRPID=1,NPENALTY=100,TPENALTY=100
 CP1, 0.3, 1000
!AUTOINC_PARAM, NAME=AP1
 0.5, 20, 100, 10, 2
 1.75, 10,  50,  5, 2
 0.25,  5
!TIME_POINTS, TIME=STEP, GENERATE, NAME=TP1
 0.0, 1.0, 0.1
### STEP
!STEP, SUBSTEPS=9999, CONVERG=1.0e-5, INC_TYPE=AUTO,AUTOINCPARAM=AP1,MAXRES=100,TIMEPOINTS=TP1
 0.1, 1.0, 1E-5, 1.0
 BOUNDARY, 1
 CONTACT,  1
### Material
!MATERIAL, NAME=MAT1
!HYPERELASTIC, TYPE=MOONEY-RIVLIN
 0.1486, 0.4849, 0.0789
### Solver Setting
!SOLVER,METHOD=CG,PRECOND=1,ITERLOG=YES,TIMELOG=YES
 1000, 1
 1.0e-10, 1.0, 0.0
## Post Control
!VISUAL,method=PSR
!surface_num=1
!surface 1
!output_type=VTK
!END
