###################################
#####   SOLVER INFORMATION    #####
###################################
!VERSION
 3
!SOLUTION, TYPE=NLSTATIC
!WRITE,LOG
!WRITE,RESULT
!OUTPUT_VIS
ELEMACT,ON
!OUTPUT_RES
ELEMACT,ON
!SOLVER,METHOD=CG,PRECOND=1,NSET=0,ITERLOG=NO,TIMELOG=NO
 5000, 1
 1.0e-06, 1.00, 0.0
 0.100, 0.100
###################################
#####   BOUNDARY CONDITIONS   #####
###################################
!BOUNDARY, GRPID=1
 PART_1_1_FIX,1,1
 PART_1_1_FIX,2,2
 PART_1_1_FIX,3,3
!CLOAD, GRPID=1
SET_1, 1, 1.0
!ELEMENT_ACTIVATION, MODE=DAMAGE, MEASURE=STRESS, EPSILON=1.0E-3, GRPID=1
PART_1_1_DUM1, -1.0, 0.0001
###################################
#####         MATERIAL        #####
###################################
!MATERIAL, NAME=MATERIAL_1
!ELASTIC
 1.00000000E+03, 3.00000000E-01
###################################
#####       STEP CONTROL      #####
###################################
!STEP, SUBSTEPS=1
BOUNDARY,1
LOAD,1
ELEMACT,1
###################################
#####      FOR VISUALIZER     #####
###################################
#!WRITE,VISUAL
!VISUAL, method=PSR
!surface_num=1
!surface 1
!output_type = BIN_VTK
!END
