###################################
#####   SOLVER INFORMATION    #####
###################################
!VERSION
 3
!SOLUTION, TYPE=DYNAMIC, NONLINEAR
!CONTACT_ALGO,TYPE=SLAGRANGE
!DYNAMIC, TYPE=NONLINEAR
 1, 1
 0.0, 0.1, 5, 0.02
 0.5, 0.25
 1, 1, 0.0, 0.0
 1, 1, 1
 1, 1, 1, 1, 1, 1
!WRITE,RESULT,FREQUENCY=5
!OUTPUT_RES
DISP,ON
REACTION,ON
NSTRESS,ON
NMISES,ON
CONTACT_NFORCE,ON
CONTACT_FRICTION,ON
CONTACT_RELVEL,ON
CONTACT_STATE,ON
CONTACT_FTRACTION,ON
CONTACT_NTRACTION,ON
!OUTPUT_VIS
DISP,ON
CONTACT_NFORCE,ON
CONTACT_FRICTION,ON
CONTACT_FTRACTION,ON
CONTACT_NTRACTION,ON
!WRITE,LOG
!SOLVER,METHOD=GMRES,PRECOND=1,NSET=0,ITERLOG=NO,TIMELOG=NO
 5000, 1
 1.0e-08, 1.00, 0.0
 0.100, 0.100
###################################
#####   BOUNDARY CONDITIONS   #####
###################################
!BOUNDARY, GRPID=1
 SET_1,1,1
!BOUNDARY, GRPID=2
 SET_2,2,2
!BOUNDARY, GRPID=3
 SET_3,3,3
!BOUNDARY, GRPID=4, AMP=RAMP
 SET_4,3,3,-0.1
###################################
#####   CONTACT DEFINITIONS   #####
###################################
!CONTACT, INTERACTION=FSLID, GRPID=1
CP1,0.3,5.0E+2
###################################
#####         MATERIAL        #####
###################################
!MATERIAL, NAME=MATERIAL_1
!ELASTIC
 1.00000000E+03, 3.00000000E-01
!DENSITY
 1.00000000E-06
###################################
#####       STEP CONTROL      #####
###################################
!STEP, SUBSTEPS=5, CONVERG=1.0e-6
 0.02, 0.1
BOUNDARY,1
BOUNDARY,2
BOUNDARY,3
BOUNDARY,4
CONTACT,1
###################################
#####      FOR VISUALIZER     #####
###################################
!WRITE,VISUAL,FREQUENCY=5
!VISUAL, method=PSR
!surface_num=1
!surface 1
!output_type = BIN_VTK
!END
