###################################
#####   SOLVER INFORMATION    #####
###################################
!VERSION
 3
!SOLUTION, TYPE=NLSTATIC
!CONTACT_ALGO,TYPE=SLAGRANGE
!WRITE,LOG
!WRITE,RESULT,FREQUENCY=9999
!OUTPUT_RES
DISP,ON
REACTION,ON
NSTRAIN,OFF
NSTRESS,ON
NMISES,ON
ESTRAIN,OFF
ESTRESS,ON
EMISES,ON
ISTRAIN,ON
ISTRESS,ON
CONTACT_NFORCE,ON
CONTACT_FRICTION,ON
CONTACT_RELVEL,ON
CONTACT_STATE,ON
CONTACT_FTRACTION,ON
CONTACT_NTRACTION,ON
!SOLVER,METHOD=GMRES,PRECOND=5,NSET=0,ITERLOG=NO,TIMELOG=NO
 5000, 1
 1.0e-06, 1.00, 0.0
 0.100, 0.100
###################################
#####   BOUNDARY CONDITIONS   #####
###################################
!BOUNDARY, GRPID=1
 FIX,1,1
 FIX,2,2
 FIX,3,3
!BOUNDARY, GRPID=2
 MOVE,1,1
 MOVE,2,2,-0.5
 MOVE,3,3
###################################
#####   CONTACT DEFINITIONS   #####
###################################
!CONTACT, INTERACTION=SSLID, GRPID=1
CP1, 0.2, 50.0
###################################
#####         MATERIAL        #####
###################################
!MATERIAL, NAME=MATERIAL_1
!ELASTIC
1000, 0.3
###################################
#####       STEP CONTROL      #####
###################################
!STEP, INC_TYPE=AUTO, SUBSTEPS=200
0.2, 1.0, 1E-5, 1.0
BOUNDARY,1
BOUNDARY,2
CONTACT,1
###################################
#####      FOR VISUALIZER     #####
###################################
#!WRITE,VISUAL
!VISUAL, method=PSR
!surface_num=1
!surface 1
!output_type = VTK
!END
