###################################
#####   SOLVER INFORMATION    #####
###################################
!VERSION
 3
!SOLUTION, TYPE=NLSTATIC
!WRITE,LOG
!WRITE,RESULT,FREQUENCY=9999
!SOLVER,METHOD=CG,PRECOND=1,NSET=0,ITERLOG=NO,TIMELOG=NO
 500000, 2
 1.00e-08, 1.00, 0.0
###################################
#####   BOUNDARY CONDITIONS   #####
###################################
!BOUNDARY, GRPID=1
SET-1,1,3
!CLOAD, GRPID=1
SET-2, 2, -0.1
!SPRING, GRPID=1
SET-2, 2, 1.0
###################################
#####         MATERIAL        #####
###################################
!MATERIAL, NAME=MATERIAL-1
!ELASTIC
 1.00000000E+02, 3.00000000E-01
###################################
#####       STEP CONTROL      #####
###################################
!STEP, SUBSTEPS=5, MAXITER=15, CONVERG=1.000E-06
BOUNDARY,1
LOAD,1
!END
