###################################
#####   SOLVER INFORMATION    #####
###################################
!VERSION
 3
!SOLUTION, TYPE=NLSTATIC
!CONTACT_ALGO,TYPE=SLAGRANGE
!WRITE,RESULT,FREQUENCY=10
!OUTPUT_RES
DISP,ON
REACTION,ON
NSTRAIN,OFF
NSTRESS,ON
NMISES,ON
ESTRAIN,OFF
ESTRESS,ON
EMISES,ON
CONTACT_NFORCE,ON
CONTACT_STATE,ON
!WRITE,LOG
!SOLVER,METHOD=CG,PRECOND=1,NSET=0,ITERLOG=NO,TIMELOG=NO
 5000, 1
 1.0e-06, 1.00, 0.0
 0.100, 0.100
###################################
#####   BOUNDARY CONDITIONS   #####
###################################
!BOUNDARY, GRPID=1
 SET_1,1,1
!BOUNDARY, GRPID=2
 SET_2,2,2
!BOUNDARY, GRPID=3
 SET_3,3,3
!BOUNDARY, GRPID=4
 SET_4,3,3,-0.005
!BOUNDARY, GRPID=5
 SET_4,3,3,-0.03
!BOUNDARY, GRPID=6
 SET_4,3,3,0.04
###################################
#####   CONTACT DEFINITIONS   #####
###################################
!CONTACT, INTERACTION=FSLID, GRPID=1, DAMP_ALPHA=1.0E-2, DAMP_GACT=2.0E-2
CP1,0.0,5.0E+2
###################################
#####         MATERIAL        #####
###################################
!MATERIAL, NAME=MATERIAL_1
!ELASTIC
 1.00000000E+03, 3.00000000E-01
###################################
#####       STEP CONTROL      #####
###################################
!STEP, SUBSTEPS=10
BOUNDARY,1
BOUNDARY,2
BOUNDARY,3
BOUNDARY,4
CONTACT,1
!STEP, SUBSTEPS=10
BOUNDARY,1
BOUNDARY,2
BOUNDARY,3
BOUNDARY,5
CONTACT,1
!STEP, SUBSTEPS=10
BOUNDARY,1
BOUNDARY,2
BOUNDARY,3
BOUNDARY,6
CONTACT,1
!END
