!VERSION
    3
!SOLUTION, TYPE = NLSTATIC
!BOUNDARY, GRPID = 2
        1,        1,        3,   0.0000000000E+00
        4,        1,        1,   0.0000000000E+00
        4,        3,        3,   0.0000000000E+00
        5,        1,        2,   0.0000000000E+00
        9,        1,        1,   0.0000000000E+00
        2,        1,        1,   1.5000000000E+00
        3,        1,        1,   1.5000000000E+00
        6,        1,        1,   1.5000000000E+00
        7,        1,        1,   1.5000000000E+00
!BOUNDARY, GRPID = 1
        1,        1,        3,   0.0000000000E+00
        4,        1,        1,   0.0000000000E+00
        4,        3,        3,   0.0000000000E+00
        5,        1,        2,   0.0000000000E+00
        9,        1,        1,   0.0000000000E+00
!CLOAD,    GRPID = 1
        2,        1,             1.0000000000E+02
        3,        1,             1.0000000000E+02
        6,        1,             1.0000000000E+02
        7,        1,             1.0000000000E+02
!STEP, SUBSTEPS = 10, CONVERG=1.0E-8
  BOUNDARY,    1
  LOAD,        1
!ORIENTATION, NAME=ORI-1
1,0,0,0,1,0,0,0,0
!SECTION, SECNUM=1, ORIENTATION=ORI-1
!MATERIAL, NAME=M1
!HYPERELASTIC, TYPE=MOONEY-RIVLIN-ANISO
  2.1E+5, 1000.0, 0.4995, 1.0E+4, 1.0E+3
!WRITE,LOG
!WRITE, RESULT, FREQUENCY=10
!NODE_OUTPUT
   STRAIN
   STRESS
!NODE_OUTPUT
   DISP
!SOLVER, METHOD = BiCGSTAB, PRECOND = 1, ITERLOG = NO, TIMELOG = NO
  10000,       1
 1.0E-09,     1.0,     0.0
!END
