!VERSION
  3
!SOLUTION, TYPE = NLSTATIC
!BOUNDARY, GRPID = 1
  FIX, 1, 6, 0.0
!CLOAD, GRPID = 1
  CL1, 3, -0.75
  CL2, 3, -1.50
  CL3, 3, -0.75
!STEP, SUBSTEPS = 5, MAXITER = 20, CONVERG = 1.0E-8
  BOUNDARY, 1
  LOAD, 1
!MATERIAL, NAME = M1
!ELASTIC
  4000.0, 0.3
!SOLVER, METHOD = CG, PRECOND = 3, ITERLOG = NO, TIMELOG = NO
  10000, 1
  1.0E-8, 1.0, 0.0
!WRITE, RESULT, FREQUENCY = 9999
!OUTPUT_SSTYPE, TYPE = MATERIAL
!OUTPUT_RES
  ESTRAIN, ON
  ESTRESS, ON
  SHELL_LAYER, ON
!END
