!!
!! Control File for FSTR solver
!!
!VERSION
  3
!SOLUTION, TYPE=DYNAMIC
!DYNAMIC, TYPE=NONLINEAR
 1 , 1
 0.0, 1.0, 500, 1.0000e-5
 0.5, 0.25
 1, 1, 0.0, 1.e-6
 100, 3121, 10
 1, 1, 1, 1, 1, 1
!BOUNDARY, AMP=AMP1
 FIX, 1, 3, 0.0
!CLOAD, AMP=AMP1
 CL1,    3,    -1.0
!MATERIAL, NAME=M1
!ELASTIC
    4000.,      0.3
!STEP, ITMAX=50
!!
!! SOLVER CONTROL
!!
!SOLVER,METHOD=1,PRECOND=2,ITERLOG=NO,TIMELOG=NO
  10000, 2
!END
