*HEADING
 Column of 100 x 100 x 1000 under self-weight, 10 C3D8 elements
*NODE
 1,   0.0,   0.0,    0.0
 2, 100.0,   0.0,    0.0
 3, 100.0, 100.0,    0.0
 4,   0.0, 100.0,    0.0
 5,   0.0,   0.0,  100.0
 6, 100.0,   0.0,  100.0
 7, 100.0, 100.0,  100.0
 8,   0.0, 100.0,  100.0
 9,   0.0,   0.0,  200.0
10, 100.0,   0.0,  200.0
11, 100.0, 100.0,  200.0
12,   0.0, 100.0,  200.0
13,   0.0,   0.0,  300.0
14, 100.0,   0.0,  300.0
15, 100.0, 100.0,  300.0
16,   0.0, 100.0,  300.0
17,   0.0,   0.0,  400.0
18, 100.0,   0.0,  400.0
19, 100.0, 100.0,  400.0
20,   0.0, 100.0,  400.0
** ... 24 like lines cut
*ELEMENT, TYPE=C3D8, ELSET=EALL
 1,  1,  2,  3,  4,  5,  6,  7,  8
 2,  5,  6,  7,  8,  9, 10, 11, 12
 3,  9, 10, 11, 12, 13, 14, 15, 16
 4, 13, 14, 15, 16, 17, 18, 19, 20
 5, 17, 18, 19, 20, 21, 22, 23, 24
 6, 21, 22, 23, 24, 25, 26, 27, 28
 7, 25, 26, 27, 28, 29, 30, 31, 32
 8, 29, 30, 31, 32, 33, 34, 35, 36
 9, 33, 34, 35, 36, 37, 38, 39, 40
10, 37, 38, 39, 40, 41, 42, 43, 44
*NSET, NSET=BOTTOM
 1, 2, 3, 4
*NSET, NSET=TOP
41, 42, 43, 44
*NSET, NSET=XSYM
 1,  4,  5,  8,  9, 12, 13, 16, 17, 20, 21, 24, 25, 28, 29, 32
33, 36, 37, 40, 41, 44
*NSET, NSET=YSYM
 1,  2,  5,  6,  9, 10, 13, 14, 17, 18, 21, 22, 25, 26, 29, 30
33, 34, 37, 38, 41, 42
*MATERIAL, NAME=STEEL
*DENSITY
7.85E-9
*ELASTIC
210000.0, 0.0
*CONDUCTIVITY
50.0
*MATERIAL, NAME=RUBBER
*HYPERELASTIC, NEO HOOKE
1.0, 0.1
*SOLID SECTION, ELSET=EALL, MATERIAL=STEEL
*AMPLITUDE, NAME=RAMP
0.0, 0.0, 1.0, 1.0
*INITIAL CONDITIONS, TYPE=DISPLACEMENT
BOTTOM, 3, 0.0
*INITIAL CONDITIONS, TYPE=VELOCITY
TOP, 3, 0.0
*STEP
*STATIC
*BOUNDARY, OP=NEW
BOTTOM, 3, 3
XSYM, 1, 1
YSYM, 2, 2
*CLOAD, OP=NEW
TOP, 1, 0.0
TOP, 2, 0.0
*DLOAD, OP=NEW, AMPLITUDE=RAMP
EALL, GRAV, 9810., 0., 0., -1.
EALL, P2, 0.0
*NODE PRINT, NSET=TOP
U
*NODE FILE
U
*EL PRINT, ELSET=EALL
S
*EL FILE
S
*END STEP
